/*--------------------------------*- C++ -*----------------------------------*\
| =========                 |                                                 |
| \\      /  F ield         | OpenFOAM: The Open Source CFD Toolbox           |
|  \\    /   O peration     | Version:  2.2.0                                 |
|   \\  /    A nd           | Web:      www.OpenFOAM.org                      |
|    \\/     M anipulation  |                                                 |
\*---------------------------------------------------------------------------*/
FoamFile
{
    version     2.0;
    format      ascii;
    class       dictionary;
    location    "system";
    object      controlDict;
}
// * * * * * * * * * * * * * * * * * * * * * * * * * * * * * * * * * * * * * //

application     adjointShapeOptimizationFoam;

startFrom       latestTime;//startTime;

startTime       0;

stopAt          endTime;

endTime         4000;

deltaT          1;

writeControl    timeStep;//adjustableRunTime;//timeStep;

writeInterval   100;

purgeWrite      0;

writeFormat     ascii;

writePrecision  12;

writeCompression off;

timeFormat      general;

timePrecision   12;

runTimeModifiable true;
//adjustableTimeStep	yes;
//maxCo		0.5;
//maxKCo		0.5
//maxEpsilonCo	0.5;
//maxAlphaCo	0.5;
//maxDeltaT	1;

// ************************************************************************* //
